* C:\Users\Bowserinator\Downloads\TPT-Ultimata-Mod\extra\Draft1.asc
V1 P001 0 10 Rser=0
R1 VA P001 390
R2 VA 0 210
.op
.backanno
.end
